[TITLE]
Anytown network model

[JUNCTIONS]
;ID              	Elev        	Demand      	Pattern         
 j20              	20          	500         	                	;
 j30              	50          	200         	                	;
 j40              	50          	200         	                	;
 j50              	50          	200         	                	;
 j55              	80          	0           	                	;
 j60              	50          	500         	                	;
 j70              	50          	500         	                	;
 j75              	80          	0           	                	;
 j80              	50          	500         	                	;
 j90              	50          	1000        	                	;
 j100             	50          	500         	                	;
 j110             	50          	500         	                	;
 j115             	80          	0           	                	;
 j120             	120         	200         	                	;
 j130             	120         	200         	                	;
 j140             	80          	200         	                	;
 j150             	120         	200         	                	;
 j160             	120         	800         	                	;
 j170             	120         	200         	                	;

[RESERVOIRS]
;ID              	Head        	Pattern         
 r10              	10          	                	;
 r65              	215         	                	;
 r165             	215         	                	;

[TANKS]
;ID              	Elevation   	InitLevel   	MinLevel    	MaxLevel    	Diameter    	MinVol      	VolCurve

[PIPES]
;ID              	Node1           	Node2           	Length      	Diameter    	Roughness   	MinorLoss   	Status
 p2               	j20              	j70              	12000       	2          	70          	0           	OPEN  	;
 p4               	j20              	j30              	12000       	4          	120         	0           	OPEN  	;
 p6               	j20              	j110             	12000       	6          	70          	0           	OPEN  	;
 p8               	j70              	j30              	9000        	8          	70          	0           	OPEN  	;
 p10              	j70              	j100             	600         	10          	70          	0           	OPEN  	;
 p12              	j70              	j90              	600         	12          	70          	0           	OPEN  	;
 p14              	j70              	j60              	600         	14          	70          	0           	OPEN  	;
 p16              	j90              	j60              	600         	16          	70          	0           	OPEN  	;
 p18              	j60              	j80              	600         	18          	70          	0           	OPEN  	;
 p20              	j90              	j80              	600         	20          	70          	0           	OPEN  	;
 p22              	j90              	j150             	600         	22          	70          	0           	OPEN  	;
 p24              	j90              	j100             	600         	24          	70          	0           	OPEN  	;
 p26              	j100             	j150             	600         	26          	70          	0           	OPEN  	;
 p28              	j150             	j80              	600         	28          	70          	0           	OPEN  	;
 p30              	j60              	j30              	600         	30          	120         	0           	OPEN  	;
 p32              	j30              	j40              	600         	32          	120         	0           	OPEN  	;
 p34              	j30              	j50              	600         	34          	120         	0           	OPEN  	;
 p36              	j40              	j50              	600         	36          	120         	0           	OPEN  	;
 p38              	j50              	j80              	600         	38          	120         	0           	OPEN  	;
 p40              	j80              	j140             	600         	40          	120         	0           	OPEN  	;
 p42              	j150             	j140             	600         	42           	120         	0           	OPEN  	;
 p44              	j150             	j160             	600         	44           	120         	0           	OPEN  	;
 p46              	j100             	j160             	600         	46           	120         	0           	OPEN  	;
 p48              	j100             	j110             	600         	48           	70          	0           	OPEN  	;
 p50              	j110             	j160             	600         	50          	120         	0           	OPEN  	;
 p52              	j110             	j120             	600         	52           	120         	0           	OPEN  	;
 p54              	j120             	j160             	600         	54          	130         	0           	OPEN  	;
 p56              	j120             	j130             	600         	56           	120         	0           	OPEN  	;
 p58              	j130             	j160             	600         	58          	120         	0           	OPEN  	;
 p60              	j130             	j170             	600         	60           	120         	0           	OPEN  	;
 p62              	j160             	j140             	600         	62           	120         	0           	OPEN  	;
 p64              	j170             	j140             	12000       	64           	120         	0           	OPEN  	;
 p66              	j50              	j140             	12000       	66           	120         	0           	OPEN  	;
 p68              	j140             	j115             	6000        	68         	130         	0           	OPEN  	;
 p70              	j140             	j75              	6000        	70          	130         	0           	OPEN  	;
 p72              	j115             	j75              	6000        	72          	130         	0           	OPEN  	;
 p74              	j50              	j55              	6000        	74          	130         	0           	OPEN  	;
 p76              	j55              	j75              	6000        	76          	130         	0           	OPEN  	;
 p78              	j60              	r65              	100         	78          	120         	0           	OPEN  	;
 p80              	r165             	j160             	100         	80          	120         	0           	OPEN  	;

[PUMPS]
;ID              	Node1           	Node2           	Parameters
 pump82              	r10              	j20              	HEAD 1	;

[VALVES]
;ID              	Node1           	Node2           	Diameter    	Type	Setting     	MinorLoss   

[TAGS]

[DEMANDS]
;Junction        	Demand      	Pattern         	Category

[STATUS]
;ID              	Status/Setting

[PATTERNS]
;ID              	Multipliers
;Demand Pattern
 1               	0.7         	0.6         	1.2         	1.3         	1.2         	1.1         
 1               	1           	0.9         

[CURVES]
;ID              	X-Value     	Y-Value
;PUMP: PUMP:  Pump Curve for Pump 9
 1               	0           	300         
 1               	2000        	292         
 1               	4000        	270         
 1               	6000        	230         
 1               	8000        	181         
;EFFICIENCY: ID Flow efficiency
 E1              	0           	0           
 E1              	2000        	50          
 E1              	4000        	65          
 E1              	6000        	55          
 E1              	8000        	40          

[CONTROLS]

[RULES]

[ENERGY]
 Global Efficiency  	65
 Global Price       	0.0
 Demand Charge      	0.0
 Pump 	82              	Efficiency	E1

[EMITTERS]
;Junction        	Coefficient

[QUALITY]
;Node            	InitQual

[SOURCES]
;Node            	Type        	Quality     	Pattern

[REACTIONS]
;Type     	Pipe/Tank       	Coefficient


[REACTIONS]
 Order Bulk            	1
 Order Tank            	1
 Order Wall            	1
 Global Bulk           	0
 Global Wall           	0
 Limiting Potential    	0
 Roughness Correlation 	0

[MIXING]
;Tank            	Model

[TIMES]
 Duration           	24:00 
 Hydraulic Timestep 	3:00 
 Quality Timestep   	0:05 
 Pattern Timestep   	3:00 
 Pattern Start      	0:00 
 Report Timestep    	3:00 
 Report Start       	0:00 
 Start ClockTime    	12 am
 Statistic          	NONE

[REPORT]
 Status             	Yes
 Summary            	No
 Page               	0

[OPTIONS]
 Units              	CMH
 Headloss           	H-W
 Specific Gravity   	1.0
 Viscosity          	1.0
 Trials             	40
 Accuracy           	0.001
 CHECKFREQ          	2
 MAXCHECK           	10
 DAMPLIMIT          	0
 Unbalanced         	Continue 10
 Pattern            	1
 Demand Multiplier  	1.0
 Emitter Exponent   	0.5
 Quality            	Chlorine mg/L
 Diffusivity        	1.0
 Tolerance          	0.01

[COORDINATES]
;Node            	X-Coord         	Y-Coord
 20              	6391.60         	4257.81         
 30              	6723.63         	6181.64         
 40              	5327.15         	7500.00         
 50              	3959.96         	7050.78         
 55              	3081.05         	7431.64         
 60              	5366.21         	6044.92         
 70              	5473.63         	4931.64         
 75              	2270.51         	7089.84         
 80              	4340.82         	6230.47         
 90              	4838.87         	5410.16         
 100             	4428.71         	4765.63         
 110             	4125.98         	3945.31         
 115             	1655.27         	6787.11         
 120             	3413.09         	3281.25         
 130             	2055.66         	3896.48         
 140             	2124.02         	6015.63         
 150             	3891.60         	5566.41         
 160             	2895.51         	4765.63         
 170             	825.20          	5126.95         
 10              	7241.21         	3750.00         
 65              	5297.85         	6367.19         
 165             	2377.93         	4892.58         

[VERTICES]
;Link            	X-Coord         	Y-Coord
 62              	2133.79         	6064.45         
 80              	2807.62         	4755.86         

[LABELS]
;X-Coord           Y-Coord          Label & Anchor Node

[BACKDROP]
 DIMENSIONS     	0.00            	0.00            	10000.00        	10000.00        
 UNITS          	None
 FILE           	
 OFFSET         	0.00            	0.00            

[END]
