[TITLE]


[JUNCTIONS]
;ID              	Elev        	Demand      	Pattern         
 J511            	105.0800    	1.175912    	DMA2_pat        	;
 J411            	8.9500      	0.889040    	DMA1_pat        	;
 J414            	34.3600     	0.965865    	DMA1_pat        	;
 J415            	65.0000     	0.000000    	                	;
 J416            	42.6000     	0.000000    	                	;
 J417            	37.3800     	1.291233    	DMA1_pat        	;
 J418            	37.3900     	0.000000    	                	;
 J419            	40.5000     	0.000000    	                	;
 J310            	51.8400     	1.357483    	DMA4_pat        	;
 J311            	55.9500     	1.181730    	DMA4_pat        	;
 J312            	68.4800     	0.075588    	DMA4_pat        	;
 J313            	67.6600     	0.690055    	DMA4_pat        	;
 J314            	14.9400     	1.437699    	DMA1_pat        	;
 J315            	16.0300     	1.317467    	DMA1_pat        	;
 J316            	12.9800     	0.622560    	DMA1_pat        	;
 J318            	53.6700     	1.603255    	DMA4_pat        	;
 J319            	39.2900     	1.452410    	DMA4_pat        	;
 J210            	7.0100      	0.093728    	DMA1_pat        	;
 J211            	11.2700     	1.582595    	DMA1_pat        	;
 J212            	7.8700      	0.606698    	DMA1_pat        	;
 J214            	8.6700      	0.874781    	DMA1_pat        	;
 J217            	10.9800     	1.278520    	DMA1_pat        	;
 J218            	7.6800      	0.089174    	DMA1_pat        	;
 J219            	52.0000     	0.987430    	DMA5_pat        	;
 J110            	15.9200     	0.781167    	DMA1_pat        	;
 J420            	39.9900     	0.000000    	                	;
 J421            	37.0900     	1.037828    	DMA1_pat        	;
 J422            	38.8100     	0.000000    	                	;
 J1153           	22.1400     	0.439655    	DMA1_pat        	;
 J1154           	14.6100     	0.465570    	DMA1_pat        	;
 J1155           	15.5400     	1.383003    	DMA1_pat        	;
 J425            	64.4200     	0.000000    	                	;
 J426            	72.7100     	0.000000    	                	;
 J1157           	22.2100     	1.643489    	DMA1_pat        	;
 J427            	67.6500     	0.000000    	                	;
 J1158           	28.2500     	0.378110    	DMA1_pat        	;
 J428            	16.2000     	1.158526    	DMA1_pat        	;
 J429            	12.5600     	1.633339    	DMA1_pat        	;
 J320            	46.7300     	0.406552    	DMA4_pat        	;
 J321            	44.5900     	0.889788    	DMA4_pat        	;
 J322            	48.0200     	0.177283    	DMA4_pat        	;
 J324            	42.3800     	1.665691    	DMA4_pat        	;
 J1056           	7.6400      	1.126960    	DMA1_pat        	;
 J327            	49.6800     	0.026173    	DMA4_pat        	;
 J1058           	13.5800     	0.958640    	DMA1_pat        	;
 J328            	45.6900     	0.166754    	DMA4_pat        	;
 J329            	44.0500     	0.171705    	DMA4_pat        	;
 J220            	80.0000     	1.331474    	DMA5_pat        	;
 J221            	97.0700     	0.474134    	DMA4_pat        	;
 J225            	13.3300     	0.076082    	DMA1_pat        	;
 J226            	11.1000     	0.492955    	DMA1_pat        	;
 J50             	71.8000     	0.636684    	DMA4_pat        	;
 J51             	77.4200     	0.501618    	DMA4_pat        	;
 J53             	85.0000     	1.580952    	DMA5_pat        	;
 J54             	80.0000     	1.633049    	DMA5_pat        	;
 J128            	85.2600     	0.668957    	DMA2_pat        	;
 J55             	71.0000     	0.463800    	DMA5_pat        	;
 J129            	62.8500     	0.267402    	DMA2_pat        	;
 J56             	72.0000     	0.271369    	DMA5_pat        	;
 J57             	59.0000     	1.077645    	DMA5_pat        	;
 J58             	76.0000     	0.683455    	DMA5_pat        	;
 J59             	57.0000     	0.687945    	DMA5_pat        	;
 J1160           	24.9100     	1.187884    	DMA1_pat        	;
 J1161           	25.2500     	0.543677    	DMA1_pat        	;
 J431            	16.9000     	1.055298    	DMA1_pat        	;
 J432            	19.8800     	0.345935    	DMA1_pat        	;
 J433            	27.3500     	0.310022    	DMA1_pat        	;
 J434            	16.4800     	0.972265    	DMA1_pat        	;
 J435            	12.1500     	0.134524    	DMA1_pat        	;
 J436            	17.6800     	0.763286    	DMA1_pat        	;
 J438            	10.4300     	1.509550    	DMA1_pat        	;
 J1169           	55.4200     	0.435614    	DMA3_pat        	;
 J439            	17.7800     	1.308687    	DMA1_pat        	;
 J330            	58.2500     	0.631504    	DMA4_pat        	;
 J331            	59.2600     	0.482775    	DMA4_pat        	;
 J332            	44.1800     	1.324000    	DMA1_pat        	;
 J333            	25.7000     	1.052904    	DMA1_pat        	;
 J334            	29.2800     	1.046070    	DMA1_pat        	;
 J335            	25.0800     	0.714094    	DMA1_pat        	;
 J336            	23.8100     	0.163290    	DMA1_pat        	;
 J337            	22.1100     	0.935067    	DMA1_pat        	;
 J231            	71.9000     	1.157476    	DMA4_pat        	;
 J232            	69.8100     	1.522863    	DMA4_pat        	;
 J233            	74.2300     	0.000000    	                	;
 J234            	64.0600     	0.030000    	DMA2_pat        	;
 J236            	58.0000     	0.905601    	DMA5_pat        	;
 J237            	73.1400     	1.526940    	DMA5_pat        	;
 J130            	54.5200     	0.717102    	DMA2_pat        	;
 J131            	88.0500     	1.129913    	DMA2_pat        	;
 J132            	74.5500     	0.837423    	DMA2_pat        	;
 J133            	69.5800     	0.856229    	DMA2_pat        	;
 J60             	55.0000     	0.771633    	DMA5_pat        	;
 J134            	80.7000     	0.589121    	DMA2_pat        	;
 J135            	70.0000     	0.674724    	DMA2_pat        	;
 J62             	60.0000     	0.449553    	DMA5_pat        	;
 J64             	82.0000     	0.092656    	DMA5_pat        	;
 J65             	82.0000     	0.406409    	DMA5_pat        	;
 J66             	72.0000     	1.631797    	DMA5_pat        	;
 J67             	81.0000     	0.101527    	DMA5_pat        	;
 J68             	73.0000     	0.650486    	DMA5_pat        	;
 J69             	71.0000     	0.608325    	DMA5_pat        	;
 J1170           	54.5400     	0.816491    	DMA3_pat        	;
 J441            	69.0000     	0.000000    	                	;
 J444            	29.4600     	0.790765    	DMA1_pat        	;
 J341            	14.8900     	0.428779    	DMA1_pat        	;
 J344            	54.7000     	1.047920    	DMA3_pat        	;
 J345            	49.9700     	0.903450    	DMA3_pat        	;
 J347            	54.4000     	0.260504    	DMA3_pat        	;
 J348            	62.1800     	1.564242    	DMA4_pat        	;
 J349            	36.4100     	1.090832    	DMA4_pat        	;
 J241            	70.0000     	0.843479    	DMA5_pat        	;
 J242            	65.0000     	0.650786    	DMA5_pat        	;
 J243            	60.0000     	0.178959    	DMA5_pat        	;
 J244            	70.0000     	1.306659    	DMA5_pat        	;
 J245            	71.0000     	0.766068    	DMA5_pat        	;
 J246            	55.0000     	1.256147    	DMA5_pat        	;
 J247            	57.0000     	0.993491    	DMA5_pat        	;
 J248            	54.0000     	1.387884    	DMA5_pat        	;
 J249            	50.0000     	0.031264    	DMA5_pat        	;
 J142            	5.5300      	0.350615    	DMA1_pat        	;
 J143            	6.3000      	0.123256    	DMA1_pat        	;
 J70             	70.0000     	0.175755    	DMA5_pat        	;
 J144            	4.1700      	0.552824    	DMA1_pat        	;
 J71             	77.0000     	0.213750    	DMA5_pat        	;
 J72             	75.0000     	0.000402    	DMA5_pat        	;
 J73             	80.0000     	0.894657    	DMA5_pat        	;
 J74             	75.0000     	1.095092    	DMA5_pat        	;
 J76             	70.0000     	0.906690    	DMA5_pat        	;
 J77             	76.0000     	1.379020    	DMA5_pat        	;
 J78             	60.5600     	0.136489    	DMA4_pat        	;
 J350            	33.8200     	0.319871    	DMA3_pat        	;
 J351            	25.5100     	1.131522    	DMA4_pat        	;
 J352            	47.5500     	0.757013    	DMA4_pat        	;
 J353            	22.6400     	0.595039    	DMA4_pat        	;
 J354            	18.6800     	0.249968    	DMA4_pat        	;
 J355            	28.8700     	1.173993    	DMA4_pat        	;
 J358            	22.3000     	1.547977    	DMA4_pat        	;
 J359            	17.5700     	0.883687    	DMA4_pat        	;
 J250            	67.0000     	0.149402    	DMA5_pat        	;
 J251            	75.1900     	1.262882    	DMA2_pat        	;
 J252            	83.8200     	0.669737    	DMA2_pat        	;
 J253            	74.6900     	0.769791    	DMA2_pat        	;
 J254            	74.5900     	0.820276    	DMA2_pat        	;
 J257            	105.5800    	0.346046    	DMA2_pat        	;
 J154            	43.6900     	0.549560    	DMA1_pat        	;
 J155            	44.4100     	0.159048    	DMA1_pat        	;
 J82             	70.8700     	0.982988    	DMA4_pat        	;
 J156            	56.1600     	0.283123    	DMA1_pat        	;
 J83             	61.0700     	1.546028    	DMA4_pat        	;
 J84             	43.8200     	0.163216    	DMA5_pat        	;
 J85             	45.0000     	0.739771    	DMA5_pat        	;
 J159            	37.4100     	0.454911    	DMA1_pat        	;
 J86             	50.0000     	1.454245    	DMA5_pat        	;
 J87             	42.6300     	1.251146    	DMA5_pat        	;
 J89             	68.2900     	0.454904    	DMA2_pat        	;
 J360            	20.7100     	1.122745    	DMA4_pat        	;
 J361            	26.6700     	0.427715    	DMA4_pat        	;
 J362            	43.6600     	0.149828    	DMA4_pat        	;
 J363            	72.2300     	0.000000    	                	;
 J364            	65.0000     	0.000000    	                	;
 J365            	29.8300     	1.316882    	DMA1_pat        	;
 J366            	14.4600     	0.495430    	DMA1_pat        	;
 J1208           	42.7400     	0.392137    	DMA4_pat        	;
 J367            	13.6000     	0.800791    	DMA1_pat        	;
 J369            	20.2700     	0.424336    	DMA1_pat        	;
 J160            	43.6900     	0.567677    	DMA1_pat        	;
 J161            	22.8100     	0.074890    	DMA1_pat        	;
 J162            	36.8800     	0.804047    	DMA1_pat        	;
 J163            	16.2000     	0.343362    	DMA1_pat        	;
 J164            	17.3400     	1.440891    	DMA1_pat        	;
 J91             	64.0900     	0.981048    	DMA2_pat        	;
 J165            	16.6900     	1.258181    	DMA1_pat        	;
 J166            	23.9500     	1.546472    	DMA1_pat        	;
 J167            	23.9100     	0.551695    	DMA1_pat        	;
 J94             	30.7500     	0.904902    	DMA3_pat        	;
 J95             	22.5600     	0.134486    	DMA1_pat        	;
 J96             	30.0000     	1.057287    	DMA1_pat        	;
 J97             	34.1900     	0.683395    	DMA1_pat        	;
 J976            	6.3000      	1.600705    	DMA1_pat        	;
 J571            	77.1100     	0.191039    	DMA2_pat        	;
 J572            	76.4000     	1.539075    	DMA2_pat        	;
 J573            	81.6200     	1.033683    	DMA2_pat        	;
 J574            	67.3600     	0.579544    	DMA2_pat        	;
 J575            	75.2700     	0.248743    	DMA2_pat        	;
 J576            	80.8000     	0.799964    	DMA2_pat        	;
 J370            	20.4600     	0.365682    	DMA1_pat        	;
 J371            	68.8100     	0.000000    	                	;
 J372            	23.2000     	0.217367    	DMA1_pat        	;
 J373            	27.2200     	0.048143    	DMA1_pat        	;
 J374            	13.7000     	0.575653    	DMA1_pat        	;
 J375            	22.7200     	0.912781    	DMA1_pat        	;
 J376            	12.1800     	1.538258    	DMA1_pat        	;
 J377            	13.1200     	0.897077    	DMA1_pat        	;
 J1219           	14.4800     	0.677369    	DMA1_pat        	;
 J379            	10.2500     	1.412076    	DMA1_pat        	;
 J171            	8.8100      	1.377043    	DMA1_pat        	;
 J172            	6.2500      	1.120713    	DMA1_pat        	;
 J173            	13.0000     	1.203158    	DMA1_pat        	;
 J174            	6.1100      	1.661286    	DMA1_pat        	;
 J175            	6.8400      	0.566343    	DMA1_pat        	;
 J177            	13.1400     	0.825352    	DMA1_pat        	;
 J179            	15.0100     	0.688280    	DMA1_pat        	;
 J580            	113.0800    	1.158803    	DMA2_pat        	;
 J486            	86.1100     	0.298482    	DMA2_pat        	;
 J487            	79.0000     	0.704864    	DMA2_pat        	;
 J488            	89.1600     	0.905295    	DMA2_pat        	;
 J489            	85.0200     	1.357773    	DMA2_pat        	;
 J381            	36.0200     	0.901523    	DMA4_pat        	;
 J1223           	3.4800      	0.712556    	DMA1_pat        	;
 J382            	70.4200     	0.848447    	DMA4_pat        	;
 J384            	42.5100     	0.000000    	                	;
 J385            	76.6000     	0.000000    	                	;
 J180            	8.7700      	0.816384    	DMA1_pat        	;
 J181            	10.9400     	1.134699    	DMA1_pat        	;
 J1024           	5.8300      	1.477667    	DMA1_pat        	;
 J183            	13.2800     	0.617526    	DMA1_pat        	;
 J1025           	8.6100      	0.504162    	DMA1_pat        	;
 J186            	9.3800      	0.488111    	DMA1_pat        	;
 J187            	9.8100      	0.250519    	DMA1_pat        	;
 J188            	8.5100      	0.883035    	DMA1_pat        	;
 J189            	7.5800      	0.372103    	DMA1_pat        	;
 J490            	103.8400    	0.974216    	DMA2_pat        	;
 J491            	76.9300     	0.605765    	DMA2_pat        	;
 J492            	94.6700     	1.459958    	DMA2_pat        	;
 J493            	77.6200     	0.796690    	DMA2_pat        	;
 J494            	112.7600    	0.317722    	DMA2_pat        	;
 J495            	91.1500     	1.140104    	DMA2_pat        	;
 J496            	106.3400    	1.245693    	DMA2_pat        	;
 J497            	112.6300    	1.023225    	DMA2_pat        	;
 J498            	90.1200     	1.303565    	DMA2_pat        	;
 J500            	75.5200     	0.269573    	DMA2_pat        	;
 J499            	72.2400     	1.346300    	DMA2_pat        	;
 J501            	80.9700     	0.337697    	DMA2_pat        	;
 J502            	80.9900     	1.594604    	DMA2_pat        	;
 J503            	99.6500     	0.109752    	DMA2_pat        	;
 J504            	66.7100     	0.102537    	DMA2_pat        	;
 J394            	70.5300     	0.000000    	                	;
 J509            	99.9400     	0.632675    	DMA2_pat        	;
 J399            	75.0000     	0.000000    	                	;
 J401            	70.0000     	0.000000    	                	;
 J406            	71.7400     	0.000000    	                	;
 J295            	56.4200     	0.289622    	DMA4_pat        	;
 J407            	68.0000     	0.000000    	                	;
 J296            	30.9100     	1.191361    	DMA4_pat        	;
 J408            	7.9300      	0.888371    	DMA1_pat        	;
 J297            	99.0500     	0.935016    	DMA4_pat        	;
 J298            	77.4600     	0.361223    	DMA4_pat        	;
 J191            	5.7600      	0.780009    	DMA1_pat        	;
 J303            	50.4200     	1.243924    	DMA4_pat        	;
 J192            	12.4000     	1.253851    	DMA1_pat        	;
 J193            	12.9900     	0.664887    	DMA1_pat        	;
 J305            	47.1100     	1.505165    	DMA4_pat        	;
 J194            	13.4600     	1.243345    	DMA1_pat        	;
 J195            	15.3900     	0.147599    	DMA1_pat        	;
 J196            	13.3500     	1.057619    	DMA1_pat        	;
 J308            	33.2400     	1.188380    	DMA1_pat        	;
 J198            	18.5400     	0.026137    	DMA1_pat        	;
 J200            	15.7500     	0.718574    	DMA1_pat        	;
 J199            	16.2600     	0.669971    	DMA1_pat        	;
 J201            	44.8600     	0.458826    	DMA1_pat        	;
 J202            	10.4100     	1.642290    	DMA1_pat        	;
 J203            	11.0300     	1.337646    	DMA1_pat        	;
 J204            	21.5100     	1.160168    	DMA1_pat        	;
 J205            	16.6600     	0.695999    	DMA1_pat        	;
 J206            	14.1200     	1.224147    	DMA1_pat        	;
 J207            	18.8600     	0.461947    	DMA1_pat        	;
 J208            	11.2500     	0.594311    	DMA1_pat        	;
 J101            	28.6500     	0.722429    	DMA1_pat        	;
 J102            	46.9600     	1.574952    	DMA1_pat        	;
 J109            	17.4700     	0.202583    	DMA1_pat        	;
 J1              	16.8200     	1.076586    	DMA1_pat        	;
 J2              	11.9700     	0.579721    	DMA1_pat        	;
 J3              	29.0200     	0.174054    	DMA1_pat        	;
 J4              	20.8800     	0.309004    	DMA1_pat        	;
 J5              	22.7500     	0.129474    	DMA1_pat        	;
 J6              	15.2500     	0.721266    	DMA1_pat        	;
 J7              	24.9100     	1.598785    	DMA1_pat        	;
 J8              	31.1700     	0.903382    	DMA1_pat        	;
 J9              	31.8900     	0.823961    	DMA1_pat        	;
 J10             	14.6200     	1.621611    	DMA1_pat        	;
 J11             	18.4300     	0.363000    	DMA1_pat        	;
 J12             	29.2700     	0.631652    	DMA1_pat        	;
 J13             	32.0400     	0.659741    	DMA1_pat        	;
 J14             	37.9100     	0.000000    	                	;
 J15             	102.8400    	0.000000    	                	;
 J16             	88.8900     	0.000000    	                	;
 J17             	82.7500     	0.000000    	                	;
 J18             	84.9600     	0.000000    	                	;
 J19             	90.9400     	0.000000    	                	;
 J20             	80.0000     	0.000000    	                	;
 J21             	80.0000     	0.000000    	                	;
 J22             	82.7400     	0.000000    	                	;
 J23             	75.9600     	0.000000    	                	;
 J25             	94.1300     	0.107485    	DMA2_pat        	;
 J26             	76.3500     	1.260154    	DMA2_pat        	;
 J27             	82.0800     	1.167524    	DMA2_pat        	;
 J28             	45.0000     	0.828452    	DMA2_pat        	;
 J29             	49.0000     	0.259060    	DMA2_pat        	;
 J30             	72.0100     	0.372896    	DMA2_pat        	;
 J31             	69.7800     	0.543573    	DMA2_pat        	;
 J32             	45.0000     	1.307481    	DMA2_pat        	;
 J33             	48.0000     	0.083771    	DMA2_pat        	;
 J34             	50.0000     	0.863360    	DMA2_pat        	;
 J35             	67.7800     	1.261716    	DMA2_pat        	;
 J36             	51.0800     	1.334450    	DMA2_pat        	;
 J37             	66.1900     	0.542009    	DMA2_pat        	;
 J38             	47.0000     	1.621215    	DMA2_pat        	;
 J24             	34.5300     	1.340445    	DMA1_pat        	;
 J39             	45.8800     	1.124710    	DMA1_pat        	;
 J40             	12.8000     	1.508549    	DMA1_pat        	;
 J123            	38.4100     	1.459633    	DMA3_pat        	;
 J140            	39.9400     	0.694414    	DMA3_pat        	;
 J141            	41.4500     	0.205138    	DMA3_pat        	;
 J157            	31.4900     	1.590263    	DMA3_pat        	;
 J158            	25.8800     	1.328829    	DMA3_pat        	;
 J168            	40.2100     	1.160475    	DMA3_pat        	;
 J170            	46.8700     	0.669341    	DMA3_pat        	;
 J176            	50.6400     	0.027163    	DMA3_pat        	;
 J178            	58.8700     	0.279605    	DMA3_pat        	;
 J184            	56.0900     	0.273724    	DMA3_pat        	;
 J185            	43.7100     	0.849533    	DMA3_pat        	;
 J190            	58.4900     	0.676771    	DMA3_pat        	;
 J197            	41.8600     	0.176890    	DMA3_pat        	;
 J213            	52.0700     	0.460206    	DMA3_pat        	;
 J215            	75.7600     	1.071745    	DMA3_pat        	;
 J216            	53.0600     	1.415167    	DMA3_pat        	;
 J227            	52.8900     	0.829949    	DMA3_pat        	;
 J238            	44.1600     	0.312959    	DMA3_pat        	;
 J239            	43.4900     	1.494361    	DMA3_pat        	;
 J255            	35.3100     	0.621357    	DMA3_pat        	;
 J256            	40.0000     	0.000000    	                	;
 J258            	51.2400     	1.284721    	DMA3_pat        	;
 J260            	32.5300     	0.363334    	DMA3_pat        	;
 J265            	50.8700     	0.744989    	DMA3_pat        	;
 J266            	39.8300     	0.393380    	DMA3_pat        	;
 J267            	22.3100     	1.463974    	DMA4_pat        	;
 J61             	72.0000     	1.017388    	DMA5_pat        	;
 J92             	72.0000     	0.624054    	DMA5_pat        	;
 J268            	69.6800     	0.649170    	DMA4_pat        	;
 J278            	104.2900    	1.434316    	DMA2_pat        	;
 J281            	83.7200     	0.976563    	DMA2_pat        	;
 J283            	94.0600     	1.552599    	DMA2_pat        	;
 J284            	77.3800     	0.861988    	DMA2_pat        	;
 J136            	81.8000     	0.550501    	DMA2_pat        	;
 J137            	9.1100      	1.447423    	DMA1_pat        	;
 J145            	47.4600     	0.431768    	DMA3_pat        	;
 J118            	75.0000     	0.432569    	DMA5_pat        	;
 J52             	54.7000     	0.297822    	DMA4_pat        	;
 J81             	50.0000     	0.578262    	DMA2_pat        	;
 J88             	45.0000     	0.004176    	DMA2_pat        	;
 J90             	84.0000     	1.237237    	DMA2_pat        	;
 J93             	65.0000     	4.204435    	DMA2_pat        	;
 J147            	68.0000     	0.464316    	DMA2_pat        	;
 J148            	50.0000     	1.171617    	DMA2_pat        	;
 J149            	40.0000     	0.674775    	DMA2_pat        	;
 J150            	60.0000     	1.352619    	DMA2_pat        	;
 J151            	60.0000     	1.236301    	DMA2_pat        	;
 J152            	32.0000     	0.729440    	DMA2_pat        	;
 J153            	60.0000     	0.129968    	DMA2_pat        	;
 J169            	42.0000     	0.684386    	DMA2_pat        	;
 J182            	40.0000     	0.565625    	DMA2_pat        	;
 J222            	32.0000     	1.184257    	DMA2_pat        	;
 J224            	37.0000     	0.520480    	DMA2_pat        	;
 J230            	30.0000     	1.331289    	DMA4_pat        	;
 J235            	53.0000     	0.252927    	DMA4_pat        	;
 J240            	87.0000     	0.988319    	DMA2_pat        	;
 J269            	56.0000     	0.000000    	                	;
 J273            	56.0000     	0.000000    	                	;
 J274            	56.0000     	0.000000    	                	;
 J276            	56.0000     	0.000000    	                	;
 J280            	56.0000     	0.000000    	                	;
 J285            	56.0000     	0.000000    	                	;
 J287            	40.0000     	0.000000    	                	;
 J288            	40.0000     	0.000000    	                	;
 J289            	40.0000     	0.000000    	                	;
 J290            	40.0000     	0.000000    	                	;
 J291            	65.0000     	0.000000    	                	;
 J292            	40.0000     	0.000000    	                	;
 J299            	40.0000     	0.000000    	                	;
 J300            	40.0000     	0.000000    	                	;
 J301            	44.0000     	0.000000    	                	;
 J302            	44.0000     	0.000000    	                	;
 J304            	44.0000     	0.000000    	                	;
 J306            	44.0000     	0.000000    	                	;
 J307            	44.0000     	0.000000    	                	;
 J309            	44.0000     	0.000000    	                	;
 J317            	44.0000     	0.000000    	                	;
 J323            	44.0000     	0.000000    	                	;
 P1_1            	6.8400      	0.000000    	                	;
 P10_1           	25.0800     	0.000000    	                	;
 P100_1          	37.4100     	0.000000    	                	;
 P1000_1         	14.8900     	0.000000    	                	;
 P101_1          	23.9500     	0.000000    	                	;
 P1016_1         	82.7400     	0.000000    	                	;
 P102_1          	17.4700     	0.000000    	                	;
 P1022_1         	83.7200     	0.000000    	                	;
 P1023_1         	104.2900    	0.000000    	                	;
 P1024_1         	113.0800    	0.000000    	                	;
 P1025_1         	75.2700     	0.000000    	                	;
 P1026_1         	74.5500     	0.000000    	                	;
 P1027_1         	86.1100     	0.000000    	                	;
 P1028_1         	85.0200     	0.000000    	                	;
 P1029_1         	85.0200     	0.000000    	                	;
 P103_1          	11.9700     	0.000000    	                	;
 P1030_1         	77.6200     	0.000000    	                	;
 P1031_1         	112.7600    	0.000000    	                	;
 P1032_1         	103.8400    	0.000000    	                	;
 P1033_1         	94.6700     	0.000000    	                	;
 P1034_1         	74.5900     	0.000000    	                	;
 P1035_1         	74.6900     	0.000000    	                	;
 P1036_1         	88.0500     	0.000000    	                	;
 P1039_1         	81.6200     	0.000000    	                	;
 P104_1          	23.9500     	0.000000    	                	;
 P1040_1         	81.8000     	0.000000    	                	;
 P1041_1         	81.8000     	0.000000    	                	;
 P1042_1         	68.2900     	0.000000    	                	;
 P1044_1         	105.8000    	0.000000    	                	;
 P1045_1         	82.0000     	0.000000    	                	;
 P106_1          	46.9600     	0.000000    	                	;
 P107_1          	8.8100      	0.000000    	                	;
 P108_1          	28.6500     	0.000000    	                	;
 P109_1          	6.8400      	0.000000    	                	;
 P11_1           	53.6700     	0.000000    	                	;
 P110_1          	15.0100     	0.000000    	                	;
 P111_1          	6.3000      	0.000000    	                	;
 P112_1          	5.5300      	0.000000    	                	;
 P113_1          	9.1100      	0.000000    	                	;
 P115_1          	7.9300      	0.000000    	                	;
 P116_1          	9.3800      	0.000000    	                	;
 P117_1          	12.1500     	0.000000    	                	;
 P118_1          	16.9000     	0.000000    	                	;
 P119_1          	8.5100      	0.000000    	                	;
 P12_1           	11.2500     	0.000000    	                	;
 P120_1          	19.8800     	0.000000    	                	;
 P121_1          	12.4000     	0.000000    	                	;
 P122_1          	13.0000     	0.000000    	                	;
 P123_1          	24.9100     	0.000000    	                	;
 P124_1          	12.1800     	0.000000    	                	;
 P125_1          	16.2000     	0.000000    	                	;
 P126_1          	13.3300     	0.000000    	                	;
 P127_1          	12.9800     	0.000000    	                	;
 P128_1          	12.8000     	0.000000    	                	;
 P129_1          	13.7000     	0.000000    	                	;
 P13_1           	22.1100     	0.000000    	                	;
 P130_1          	12.1800     	0.000000    	                	;
 P131_1          	14.1200     	0.000000    	                	;
 P132_1          	11.1000     	0.000000    	                	;
 P134_1          	20.8800     	0.000000    	                	;
 P136_1          	22.7500     	0.000000    	                	;
 P138_1          	11.0300     	0.000000    	                	;
 P139_1          	11.2500     	0.000000    	                	;
 P14_1           	34.5300     	0.000000    	                	;
 P140_1          	52.0000     	0.000000    	                	;
 P141_1          	97.0700     	0.000000    	                	;
 P142_1          	66.1900     	0.000000    	                	;
 P144_1          	70.4200     	0.000000    	                	;
 P147_1          	69.8100     	0.000000    	                	;
 P148_1          	74.2300     	0.000000    	                	;
 P15_1           	45.8800     	0.000000    	                	;
 P150_1          	70.8700     	0.000000    	                	;
 P154_1          	71.0000     	0.000000    	                	;
 P155_1          	55.0000     	0.000000    	                	;
 P156_1          	65.0000     	0.000000    	                	;
 P157_1          	70.0000     	0.000000    	                	;
 P158_1          	58.0000     	0.000000    	                	;
 P159_1          	21.5100     	0.000000    	                	;
 P16_1           	42.7400     	0.000000    	                	;
 P160_1          	54.0000     	0.000000    	                	;
 P161_1          	26.6700     	0.000000    	                	;
 P162_1          	50.0000     	0.000000    	                	;
 P163_1          	75.1900     	0.000000    	                	;
 P165_1          	70.0000     	0.000000    	                	;
 P166_1          	47.5500     	0.000000    	                	;
 P17_1           	7.9300      	0.000000    	                	;